tests/data/egret/case9.json
{"elements": {"bus": {"1": {"matpower_bustype": "ref", "area": 1.0, "vm": 1.0, "va": 0.0, "base_kv": 345.0, "zone": 1.0, "v_min": 0.9, "v_max": 1.1}, "2": {"matpower_bustype": "PV", "area": 1.0, "vm": 1.0, "va": 0.0, "base_kv": 345.0, "zone": 1.0, "v_min": 0.9, "v_max": 1.1}, "3": {"matpower_bustype": "PV", "area": 1.0, "vm": 1.0, "va": 0.0, "base_kv": 345.0, "zone": 1.0, "v_min": 0.9, "v_max": 1.1}, "4": {"matpower_bustype": "PQ", "area": 1.0, "vm": 1.0, "va": 0.0, "base_kv": 345.0, "zone": 1.0, "v_min": 0.9, "v_max": 1.1}, "5": {"matpower_bustype": "PQ", "area": 1.0, "vm": 1.0, "va": 0.0, "base_kv": 345.0, "zone": 1.0, "v_min": 0.9, "v_max": 1.1}, "6": {"matpower_bustype": "PQ", "area": 1.0, "vm": 1.0, "va": 0.0, "base_kv": 345.0, "zone": 1.0, "v_min": 0.9, "v_max": 1.1}, "7": {"matpower_bustype": "PQ", "area": 1.0, "vm": 1.0, "va": 0.0, "base_kv": 345.0, "zone": 1.0, "v_min": 0.9, "v_max": 1.1}, "8": {"matpower_bustype": "PQ", "area": 1.0, "vm": 1.0, "va": 0.0, "base_kv": 345.0, "zone": 1.0, "v_min": 0.9, "v_max": 1.1}, "9": {"matpower_bustype": "PQ", "area": 1.0, "vm": 1.0, "va": 0.0, "base_kv": 345.0, "zone": 1.0, "v_min": 0.9, "v_max": 1.1}}, "load": {"load_5": {"in_service": true, "p_load": 90.0, "q_load": 30.0, "bus": "5"}, "load_7": {"in_service": true, "p_load": 100.0, "q_load": 35.0, "bus": "7"}, "load_9": {"in_service": true, "p_load": 125.0, "q_load": 50.0, "bus": "9"}}, "generator": {"1": {"bus": "1", "pg": 72.3, "qg": 27.03, "vg": 1.04, "mbase": 100.0, "in_service": true, "p_min": 10.0, "p_max": 250.0, "q_min": -300.0, "q_max": 300.0, "generator_type": "thermal", "pc1": 0.0, "pc2": 0.0, "qc1_min": 0.0, "qc1_max": 0.0, "qc2_min": 0.0, "qc2_max": 0.0, "ramp_agc": 0.0, "ramp_10": 0.0, "ramp_30": 0.0, "ramp_q": 0.0, "power_factor": 0.0, "p_cost": {"data_type": "cost_curve", "cost_curve_type": "polynomial", "values": {"0": 150.0, "1": 5.0, "2": 0.11}}, "startup_cost": 1500.0, "shutdown_cost": 0.0}, "2": {"bus": "2", "pg": 163.0, "qg": 6.54, "vg": 1.025, "mbase": 100.0, "in_service": true, "p_min": 10.0, "p_max": 300.0, "q_min": -300.0, "q_max": 300.0, "generator_type": "thermal", "pc1": 0.0, "pc2": 0.0, "qc1_min": 0.0, "qc1_max": 0.0, "qc2_min": 0.0, "qc2_max": 0.0, "ramp_agc": 0.0, "ramp_10": 0.0, "ramp_30": 0.0, "ramp_q": 0.0, "power_factor": 0.0, "p_cost": {"data_type": "cost_curve", "cost_curve_type": "polynomial", "values": {"0": 600.0, "1": 1.2, "2": 0.085}}, "startup_cost": 2000.0, "shutdown_cost": 0.0}, "3": {"bus": "3", "pg": 85.0, "qg": -10.95, "vg": 1.025, "mbase": 100.0, "in_service": true, "p_min": 10.0, "p_max": 270.0, "q_min": -300.0, "q_max": 300.0, "generator_type": "thermal", "pc1": 0.0, "pc2": 0.0, "qc1_min": 0.0, "qc1_max": 0.0, "qc2_min": 0.0, "qc2_max": 0.0, "ramp_agc": 0.0, "ramp_10": 0.0, "ramp_30": 0.0, "ramp_q": 0.0, "power_factor": 0.0, "p_cost": {"data_type": "cost_curve", "cost_curve_type": "polynomial", "values": {"0": 335.0, "1": 1.0, "2": 0.1225}}, "startup_cost": 3000.0, "shutdown_cost": 0.0}}, "branch": {"1": {"from_bus": "1", "to_bus": "4", "resistance": 0.0, "reactance": 0.0576, "charging_susceptance": 0.0, "branch_type": "line", "rating_long_term": 250.0, "rating_short_term": 250.0, "rating_emergency": 250.0, "in_service": true, "angle_diff_min": -360.0, "angle_diff_max": 360.0, "pf": null, "qf": null, "pt": null, "qt": null}, "2": {"from_bus": "4", "to_bus": "5", "resistance": 0.017, "reactance": 0.092, "charging_susceptance": 0.158, "branch_type": "line", "rating_long_term": 250.0, "rating_short_term": 250.0, "rating_emergency": 250.0, "in_service": true, "angle_diff_min": -360.0, "angle_diff_max": 360.0, "pf": null, "qf": null, "pt": null, "qt": null}, "3": {"from_bus": "5", "to_bus": "6", "resistance": 0.039, "reactance": 0.17, "charging_susceptance": 0.358, "branch_type": "line", "rating_long_term": 150.0, "rating_short_term": 150.0, "rating_emergency": 150.0, "in_service": true, "angle_diff_min": -360.0, "angle_diff_max": 360.0, "pf": null, "qf": null, "pt": null, "qt": null}, "4": {"from_bus": "3", "to_bus": "6", "resistance": 0.0, "reactance": 0.0586, "charging_susceptance": 0.0, "branch_type": "line", "rating_long_term": 300.0, "rating_short_term": 300.0, "rating_emergency": 300.0, "in_service": true, "angle_diff_min": -360.0, "angle_diff_max": 360.0, "pf": null, "qf": null, "pt": null, "qt": null}, "5": {"from_bus": "6", "to_bus": "7", "resistance": 0.0119, "reactance": 0.1008, "charging_susceptance": 0.209, "branch_type": "line", "rating_long_term": 150.0, "rating_short_term": 150.0, "rating_emergency": 150.0, "in_service": true, "angle_diff_min": -360.0, "angle_diff_max": 360.0, "pf": null, "qf": null, "pt": null, "qt": null}, "6": {"from_bus": "7", "to_bus": "8", "resistance": 0.0085, "reactance": 0.072, "charging_susceptance": 0.149, "branch_type": "line", "rating_long_term": 250.0, "rating_short_term": 250.0, "rating_emergency": 250.0, "in_service": true, "angle_diff_min": -360.0, "angle_diff_max": 360.0, "pf": null, "qf": null, "pt": null, "qt": null}, "7": {"from_bus": "8", "to_bus": "2", "resistance": 0.0, "reactance": 0.0625, "charging_susceptance": 0.0, "branch_type": "line", "rating_long_term": 250.0, "rating_short_term": 250.0, "rating_emergency": 250.0, "in_service": true, "angle_diff_min": -360.0, "angle_diff_max": 360.0, "pf": null, "qf": null, "pt": null, "qt": null}, "8": {"from_bus": "8", "to_bus": "9", "resistance": 0.032, "reactance": 0.161, "charging_susceptance": 0.306, "branch_type": "line", "rating_long_term": 250.0, "rating_short_term": 250.0, "rating_emergency": 250.0, "in_service": true, "angle_diff_min": -360.0, "angle_diff_max": 360.0, "pf": null, "qf": null, "pt": null, "qt": null}, "9": {"from_bus": "9", "to_bus": "4", "resistance": 0.01, "reactance": 0.085, "charging_susceptance": 0.176, "branch_type": "line", "rating_long_term": 250.0, "rating_short_term": 250.0, "rating_emergency": 250.0, "in_service": true, "angle_diff_min": -360.0, "angle_diff_max": 360.0, "pf": null, "qf": null, "pt": null, "qt": null}}}, "system": {"model_name": "case9", "mpc_version": "'2'", "baseMVA": 100.0, "reference_bus": "1", "reference_bus_angle": 0.0}}